Version 4
SHEET 1 880 680
WIRE 272 -32 240 -32
WIRE 464 -32 352 -32
WIRE -16 128 -256 128
WIRE 176 128 64 128
WIRE 240 128 240 -32
WIRE 288 128 240 128
WIRE 464 144 464 -32
WIRE 464 144 352 144
WIRE 528 144 464 144
WIRE 288 160 128 160
WIRE 128 288 128 160
WIRE 128 288 96 288
FLAG -256 208 0
FLAG 320 32 0
FLAG 320 256 0
FLAG 16 288 0
SYMBOL OpAmps\\LT1413 320 80 R0
SYMATTR InstName U1
SYMBOL res 80 112 R90
WINDOW 0 0 56 VBottom 2
WINDOW 3 32 56 VTop 2
SYMATTR InstName R1
SYMATTR Value 1k
SYMBOL res 112 272 R90
WINDOW 0 0 56 VBottom 2
WINDOW 3 32 56 VTop 2
SYMATTR InstName R2
SYMATTR Value 1k
SYMBOL cap 240 112 R90
WINDOW 0 0 32 VBottom 2
WINDOW 3 32 32 VTop 2
SYMATTR InstName C1
SYMATTR Value 0.01µ
SYMBOL voltage -256 112 R0
WINDOW 123 0 0 Left 0
WINDOW 39 0 0 Left 0
SYMATTR InstName V1
SYMATTR Value PULSE(0 3 0 0.5m 1n 1n 0.5m)
SYMBOL res 368 -48 R90
WINDOW 0 0 56 VBottom 2
WINDOW 3 32 56 VTop 2
SYMATTR InstName R3
SYMATTR Value 10k
SYMBOL voltage 320 272 R180
WINDOW 0 24 96 Left 2
WINDOW 3 24 16 Left 2
WINDOW 123 0 0 Left 0
WINDOW 39 0 0 Left 0
SYMATTR InstName V2
SYMATTR Value 15
SYMBOL voltage 320 128 R180
WINDOW 0 24 96 Left 2
WINDOW 3 24 16 Left 2
WINDOW 123 0 0 Left 0
WINDOW 39 0 0 Left 0
SYMATTR InstName V3
SYMATTR Value 15
TEXT -288 336 Left 2 !.tran 3m
