Version 4
SHEET 1 880 680
WIRE 256 -16 176 -16
WIRE 464 -16 336 -16
WIRE -160 128 -176 128
WIRE -48 128 -80 128
WIRE 64 128 32 128
WIRE 176 128 176 -16
WIRE 176 128 128 128
WIRE 224 128 176 128
WIRE 464 144 464 -16
WIRE 464 144 384 144
WIRE 560 144 464 144
WIRE 224 160 208 160
WIRE 80 224 48 224
WIRE 208 224 208 160
WIRE 208 224 160 224
FLAG -176 128 0
FLAG 48 224 0
SYMBOL res 48 112 R90
WINDOW 0 0 56 VBottom 2
WINDOW 3 32 56 VTop 2
SYMATTR InstName R1
SYMATTR Value 1k
SYMBOL res 176 208 R90
WINDOW 0 0 56 VBottom 2
WINDOW 3 32 56 VTop 2
SYMATTR InstName R2
SYMATTR Value 1k
SYMBOL res 352 -32 R90
WINDOW 0 0 56 VBottom 2
WINDOW 3 32 56 VTop 2
SYMATTR InstName Rf
SYMATTR Value 10k
SYMBOL voltage -64 128 R90
WINDOW 0 -32 56 VBottom 2
WINDOW 3 44 125 VTop 2
WINDOW 123 0 0 Left 0
WINDOW 39 0 0 Left 0
SYMATTR InstName V1
SYMATTR Value PULSE(-2 2 0 1ms 1ms 0 2ms 0)
SYMBOL cap 128 112 R90
WINDOW 0 0 32 VBottom 2
WINDOW 3 32 32 VTop 2
SYMATTR InstName Cin
SYMATTR Value 0.02µ
SYMBOL LM741 304 144 M180
SYMATTR InstName X1
TEXT -256 240 Left 2 !.tran 10ms
