Version 4
SHEET 1 880 680
WIRE 240 -32 144 -32
WIRE -80 0 -112 0
WIRE 32 0 0 0
WIRE 144 0 144 -32
WIRE 144 0 112 0
WIRE -112 16 -112 0
WIRE 112 112 112 0
WIRE 144 112 112 112
WIRE 320 128 320 -32
WIRE 320 128 208 128
WIRE 144 144 64 144
WIRE -192 176 -224 176
WIRE -48 176 -112 176
WIRE 64 176 64 144
WIRE 64 176 32 176
WIRE 64 272 64 176
WIRE 208 272 64 272
WIRE 336 272 288 272
FLAG -224 176 0
FLAG -112 16 0
FLAG 176 16 0
FLAG 176 240 0
FLAG 336 272 0
SYMBOL voltage -96 176 R90
WINDOW 0 -32 56 VBottom 2
WINDOW 3 32 56 VTop 2
WINDOW 123 0 0 Left 0
WINDOW 39 0 0 Left 0
SYMATTR InstName V1
SYMATTR Value SINE(0 2 1k)
SYMBOL voltage 16 0 R90
WINDOW 0 -32 56 VBottom 2
WINDOW 3 32 56 VTop 2
WINDOW 123 0 0 Left 0
WINDOW 39 0 0 Left 0
SYMATTR InstName V2
SYMATTR Value SINE(0 0.5 1k)
SYMBOL res 48 160 R90
WINDOW 0 0 56 VBottom 2
WINDOW 3 32 56 VTop 2
SYMATTR InstName R1
SYMATTR Value 1k
SYMBOL res 128 -16 R90
WINDOW 0 0 56 VBottom 2
WINDOW 3 32 56 VTop 2
SYMATTR InstName R2
SYMATTR Value 1k
SYMBOL res 304 256 R90
WINDOW 0 0 56 VBottom 2
WINDOW 3 32 56 VTop 2
SYMATTR InstName R3
SYMATTR Value 1k
SYMBOL OpAmps\\LT1413 176 64 R0
SYMATTR InstName U1
SYMBOL voltage 176 256 R180
WINDOW 0 24 96 Left 2
WINDOW 3 24 16 Left 2
WINDOW 123 0 0 Left 0
WINDOW 39 0 0 Left 0
SYMATTR InstName V3
SYMATTR Value 15
SYMBOL voltage 176 112 R180
WINDOW 0 24 96 Left 2
WINDOW 3 24 16 Left 2
WINDOW 123 0 0 Left 0
WINDOW 39 0 0 Left 0
SYMATTR InstName V4
SYMATTR Value 15
SYMBOL res 336 -48 R90
WINDOW 0 0 56 VBottom 2
WINDOW 3 32 56 VTop 2
SYMATTR InstName R4
SYMATTR Value 1k
TEXT -248 320 Left 2 !.tran 3ms
