Version 4
SHEET 1 880 680
WIRE 208 -192 112 -192
WIRE 400 -192 272 -192
WIRE -112 -48 -224 -48
WIRE 112 -48 112 -192
WIRE 112 -48 -32 -48
WIRE 176 -48 112 -48
WIRE 400 -32 400 -192
WIRE 400 -32 336 -32
WIRE 496 -32 400 -32
WIRE 176 -16 144 -16
WIRE 48 0 0 0
WIRE 144 0 144 -16
WIRE 144 0 128 0
WIRE 0 64 0 0
FLAG 0 64 0
FLAG -304 -48 0
SYMBOL LM741 256 -32 M180
SYMATTR InstName X1
SYMBOL res -16 -64 R90
WINDOW 0 0 56 VBottom 2
WINDOW 3 32 56 VTop 2
SYMATTR InstName R1
SYMATTR Value 10k
SYMBOL res 144 -16 R90
WINDOW 0 0 56 VBottom 2
WINDOW 3 32 56 VTop 2
SYMATTR InstName R2
SYMATTR Value 1k
SYMBOL cap 272 -208 R90
WINDOW 0 0 32 VBottom 2
WINDOW 3 32 32 VTop 2
SYMATTR InstName C1
SYMATTR Value 0.01µ
SYMBOL voltage -208 -48 R90
WINDOW 0 -32 56 VBottom 2
WINDOW 3 43 75 VTop 2
WINDOW 123 0 0 Left 0
WINDOW 39 0 0 Left 0
SYMATTR InstName V1
SYMATTR Value SINE(0 1 1k)
TEXT -538 88 Left 2 !.tran 30ms
